*SRC=1N4148;1N4148;Diodes;Si;  80.0V  0.125A  4.00ns   Diodes Inc.
.MODEL 1N4148 D  ( IS=111n RS=0.628 BV=80.0 IBV=1.00u
+ CJO=2.00p  M=0.333 N=1.70 TT=5.76n )
